<?xml version="1.0" encoding="UTF-8" standalone="yes"?>
<template encoding-version="1.3">
    <description></description>
    <groupId>39f2ec60-0185-1000-eee5-9f3ee61b34e6</groupId>
    <name>Election_flow</name>
    <snippet>
        <processGroups>
            <id>e650f79f-faf4-3d6f-0000-000000000000</id>
            <parentGroupId>d4bede8d-2953-38b6-0000-000000000000</parentGroupId>
            <position>
                <x>0.0</x>
                <y>0.0</y>
            </position>
            <versionedComponentId>e650f79f-faf4-3d6f-88e5-578ea51ec7b9</versionedComponentId>
            <comments></comments>
            <contents>
                <connections>
                    <id>0de5e80b-602c-3b49-0000-000000000000</id>
                    <parentGroupId>e650f79f-faf4-3d6f-0000-000000000000</parentGroupId>
                    <versionedComponentId>0de5e80b-602c-3b49-9569-5234742251bf</versionedComponentId>
                    <backPressureDataSizeThreshold>1 GB</backPressureDataSizeThreshold>
                    <backPressureObjectThreshold>10000</backPressureObjectThreshold>
                    <destination>
                        <groupId>e650f79f-faf4-3d6f-0000-000000000000</groupId>
                        <id>81cbfbf2-e67c-3255-0000-000000000000</id>
                        <type>PROCESSOR</type>
                        <versionedComponentId>81cbfbf2-e67c-3255-9e3f-3925c1f8b92a</versionedComponentId>
                    </destination>
                    <flowFileExpiration>0 sec</flowFileExpiration>
                    <labelIndex>1</labelIndex>
                    <loadBalanceCompression>DO_NOT_COMPRESS</loadBalanceCompression>
                    <loadBalancePartitionAttribute></loadBalancePartitionAttribute>
                    <loadBalanceStatus>LOAD_BALANCE_NOT_CONFIGURED</loadBalanceStatus>
                    <loadBalanceStrategy>DO_NOT_LOAD_BALANCE</loadBalanceStrategy>
                    <name></name>
                    <selectedRelationships>success</selectedRelationships>
                    <source>
                        <groupId>e650f79f-faf4-3d6f-0000-000000000000</groupId>
                        <id>19acf3bc-7173-3a61-0000-000000000000</id>
                        <type>PROCESSOR</type>
                        <versionedComponentId>19acf3bc-7173-3a61-af31-ac90b8aeefb3</versionedComponentId>
                    </source>
                    <zIndex>0</zIndex>
                </connections>
                <connections>
                    <id>5866c252-e8cf-3768-0000-000000000000</id>
                    <parentGroupId>e650f79f-faf4-3d6f-0000-000000000000</parentGroupId>
                    <versionedComponentId>5866c252-e8cf-3768-a3f5-2c3e9b475320</versionedComponentId>
                    <backPressureDataSizeThreshold>1 GB</backPressureDataSizeThreshold>
                    <backPressureObjectThreshold>10000</backPressureObjectThreshold>
                    <destination>
                        <groupId>e650f79f-faf4-3d6f-0000-000000000000</groupId>
                        <id>c3eb8d96-3d82-3b13-0000-000000000000</id>
                        <type>PROCESSOR</type>
                        <versionedComponentId>c3eb8d96-3d82-3b13-9757-1459c9e51826</versionedComponentId>
                    </destination>
                    <flowFileExpiration>0 sec</flowFileExpiration>
                    <labelIndex>1</labelIndex>
                    <loadBalanceCompression>DO_NOT_COMPRESS</loadBalanceCompression>
                    <loadBalancePartitionAttribute></loadBalancePartitionAttribute>
                    <loadBalanceStatus>LOAD_BALANCE_NOT_CONFIGURED</loadBalanceStatus>
                    <loadBalanceStrategy>DO_NOT_LOAD_BALANCE</loadBalanceStrategy>
                    <name></name>
                    <selectedRelationships>success</selectedRelationships>
                    <source>
                        <groupId>e650f79f-faf4-3d6f-0000-000000000000</groupId>
                        <id>644c221a-a01c-38ad-0000-000000000000</id>
                        <type>PROCESSOR</type>
                        <versionedComponentId>644c221a-a01c-38ad-bd2f-da2a748c2421</versionedComponentId>
                    </source>
                    <zIndex>0</zIndex>
                </connections>
                <connections>
                    <id>5a9d4786-0a3a-3fb5-0000-000000000000</id>
                    <parentGroupId>e650f79f-faf4-3d6f-0000-000000000000</parentGroupId>
                    <versionedComponentId>5a9d4786-0a3a-3fb5-abb4-a3d969437734</versionedComponentId>
                    <backPressureDataSizeThreshold>1 GB</backPressureDataSizeThreshold>
                    <backPressureObjectThreshold>10000</backPressureObjectThreshold>
                    <destination>
                        <groupId>e650f79f-faf4-3d6f-0000-000000000000</groupId>
                        <id>644c221a-a01c-38ad-0000-000000000000</id>
                        <type>PROCESSOR</type>
                        <versionedComponentId>644c221a-a01c-38ad-bd2f-da2a748c2421</versionedComponentId>
                    </destination>
                    <flowFileExpiration>0 sec</flowFileExpiration>
                    <labelIndex>1</labelIndex>
                    <loadBalanceCompression>DO_NOT_COMPRESS</loadBalanceCompression>
                    <loadBalancePartitionAttribute></loadBalancePartitionAttribute>
                    <loadBalanceStatus>LOAD_BALANCE_NOT_CONFIGURED</loadBalanceStatus>
                    <loadBalanceStrategy>DO_NOT_LOAD_BALANCE</loadBalanceStrategy>
                    <name></name>
                    <selectedRelationships>Failure</selectedRelationships>
                    <selectedRelationships>No Retry</selectedRelationships>
                    <selectedRelationships>Original</selectedRelationships>
                    <selectedRelationships>Response</selectedRelationships>
                    <selectedRelationships>Retry</selectedRelationships>
                    <source>
                        <groupId>e650f79f-faf4-3d6f-0000-000000000000</groupId>
                        <id>759fef0c-ff0a-3494-0000-000000000000</id>
                        <type>PROCESSOR</type>
                        <versionedComponentId>759fef0c-ff0a-3494-b97f-1523590ad76b</versionedComponentId>
                    </source>
                    <zIndex>0</zIndex>
                </connections>
                <connections>
                    <id>81089e81-b7db-36a2-0000-000000000000</id>
                    <parentGroupId>e650f79f-faf4-3d6f-0000-000000000000</parentGroupId>
                    <versionedComponentId>81089e81-b7db-36a2-b8c4-cef745f4acd8</versionedComponentId>
                    <backPressureDataSizeThreshold>1 GB</backPressureDataSizeThreshold>
                    <backPressureObjectThreshold>10000</backPressureObjectThreshold>
                    <destination>
                        <groupId>e650f79f-faf4-3d6f-0000-000000000000</groupId>
                        <id>905883a2-8548-3575-0000-000000000000</id>
                        <type>PROCESSOR</type>
                        <versionedComponentId>905883a2-8548-3575-a72f-94a72a2b925e</versionedComponentId>
                    </destination>
                    <flowFileExpiration>0 sec</flowFileExpiration>
                    <labelIndex>1</labelIndex>
                    <loadBalanceCompression>DO_NOT_COMPRESS</loadBalanceCompression>
                    <loadBalancePartitionAttribute></loadBalancePartitionAttribute>
                    <loadBalanceStatus>LOAD_BALANCE_NOT_CONFIGURED</loadBalanceStatus>
                    <loadBalanceStrategy>DO_NOT_LOAD_BALANCE</loadBalanceStrategy>
                    <name></name>
                    <selectedRelationships>success</selectedRelationships>
                    <source>
                        <groupId>e650f79f-faf4-3d6f-0000-000000000000</groupId>
                        <id>644c221a-a01c-38ad-0000-000000000000</id>
                        <type>PROCESSOR</type>
                        <versionedComponentId>644c221a-a01c-38ad-bd2f-da2a748c2421</versionedComponentId>
                    </source>
                    <zIndex>0</zIndex>
                </connections>
                <connections>
                    <id>8d889b25-86a2-3df9-0000-000000000000</id>
                    <parentGroupId>e650f79f-faf4-3d6f-0000-000000000000</parentGroupId>
                    <versionedComponentId>8d889b25-86a2-3df9-af08-646d61edd826</versionedComponentId>
                    <backPressureDataSizeThreshold>1 GB</backPressureDataSizeThreshold>
                    <backPressureObjectThreshold>10000</backPressureObjectThreshold>
                    <destination>
                        <groupId>e650f79f-faf4-3d6f-0000-000000000000</groupId>
                        <id>19acf3bc-7173-3a61-0000-000000000000</id>
                        <type>PROCESSOR</type>
                        <versionedComponentId>19acf3bc-7173-3a61-af31-ac90b8aeefb3</versionedComponentId>
                    </destination>
                    <flowFileExpiration>0 sec</flowFileExpiration>
                    <labelIndex>1</labelIndex>
                    <loadBalanceCompression>DO_NOT_COMPRESS</loadBalanceCompression>
                    <loadBalancePartitionAttribute></loadBalancePartitionAttribute>
                    <loadBalanceStatus>LOAD_BALANCE_NOT_CONFIGURED</loadBalanceStatus>
                    <loadBalanceStrategy>DO_NOT_LOAD_BALANCE</loadBalanceStrategy>
                    <name></name>
                    <selectedRelationships>Failure</selectedRelationships>
                    <selectedRelationships>No Retry</selectedRelationships>
                    <selectedRelationships>Original</selectedRelationships>
                    <selectedRelationships>Response</selectedRelationships>
                    <selectedRelationships>Retry</selectedRelationships>
                    <source>
                        <groupId>e650f79f-faf4-3d6f-0000-000000000000</groupId>
                        <id>60d3d9aa-75ac-3dbe-0000-000000000000</id>
                        <type>PROCESSOR</type>
                        <versionedComponentId>60d3d9aa-75ac-3dbe-9074-bb075f429019</versionedComponentId>
                    </source>
                    <zIndex>0</zIndex>
                </connections>
                <connections>
                    <id>e3797f50-ebfb-38d5-0000-000000000000</id>
                    <parentGroupId>e650f79f-faf4-3d6f-0000-000000000000</parentGroupId>
                    <versionedComponentId>e3797f50-ebfb-38d5-b0fe-46194bc515d6</versionedComponentId>
                    <backPressureDataSizeThreshold>1 GB</backPressureDataSizeThreshold>
                    <backPressureObjectThreshold>10000</backPressureObjectThreshold>
                    <destination>
                        <groupId>e650f79f-faf4-3d6f-0000-000000000000</groupId>
                        <id>ee8f83bf-3e48-372d-0000-000000000000</id>
                        <type>PROCESSOR</type>
                        <versionedComponentId>ee8f83bf-3e48-372d-ae45-af5965dd7a4a</versionedComponentId>
                    </destination>
                    <flowFileExpiration>0 sec</flowFileExpiration>
                    <labelIndex>1</labelIndex>
                    <loadBalanceCompression>DO_NOT_COMPRESS</loadBalanceCompression>
                    <loadBalancePartitionAttribute></loadBalancePartitionAttribute>
                    <loadBalanceStatus>LOAD_BALANCE_NOT_CONFIGURED</loadBalanceStatus>
                    <loadBalanceStrategy>DO_NOT_LOAD_BALANCE</loadBalanceStrategy>
                    <name></name>
                    <selectedRelationships>success</selectedRelationships>
                    <source>
                        <groupId>e650f79f-faf4-3d6f-0000-000000000000</groupId>
                        <id>19acf3bc-7173-3a61-0000-000000000000</id>
                        <type>PROCESSOR</type>
                        <versionedComponentId>19acf3bc-7173-3a61-af31-ac90b8aeefb3</versionedComponentId>
                    </source>
                    <zIndex>0</zIndex>
                </connections>
                <controllerServices>
                    <id>2837ef8b-e01b-31a0-0000-000000000000</id>
                    <parentGroupId>e650f79f-faf4-3d6f-0000-000000000000</parentGroupId>
                    <versionedComponentId>2837ef8b-e01b-31a0-8913-32b813741023</versionedComponentId>
                    <bulletinLevel>WARN</bulletinLevel>
                    <bundle>
                        <artifact>nifi-record-serialization-services-nar</artifact>
                        <group>org.apache.nifi</group>
                        <version>1.19.1</version>
                    </bundle>
                    <descriptors>
                        <entry>
                            <key>Schema Write Strategy</key>
                            <value>
<name>Schema Write Strategy</name>
                            </value>
                        </entry>
                        <entry>
                            <key>schema-cache</key>
                            <value>
<identifiesControllerService>org.apache.nifi.serialization.RecordSchemaCacheService</identifiesControllerService>
<name>schema-cache</name>
                            </value>
                        </entry>
                        <entry>
                            <key>schema-protocol-version</key>
                            <value>
<dependencies>
    <dependentValues>hwx-schema-ref-attributes</dependentValues>
    <dependentValues>hwx-content-encoded-schema</dependentValues>
    <propertyName>Schema Write Strategy</propertyName>
</dependencies>
<name>schema-protocol-version</name>
                            </value>
                        </entry>
                        <entry>
                            <key>schema-access-strategy</key>
                            <value>
<name>schema-access-strategy</name>
                            </value>
                        </entry>
                        <entry>
                            <key>schema-registry</key>
                            <value>
<dependencies>
    <dependentValues>confluent-encoded</dependentValues>
    <dependentValues>schema-name</dependentValues>
    <dependentValues>hwx-schema-ref-attributes</dependentValues>
    <dependentValues>hwx-content-encoded-schema</dependentValues>
    <propertyName>schema-access-strategy</propertyName>
</dependencies>
<identifiesControllerService>org.apache.nifi.schemaregistry.services.SchemaRegistry</identifiesControllerService>
<name>schema-registry</name>
                            </value>
                        </entry>
                        <entry>
                            <key>schema-name</key>
                            <value>
<dependencies>
    <dependentValues>schema-name</dependentValues>
    <propertyName>schema-access-strategy</propertyName>
</dependencies>
<name>schema-name</name>
                            </value>
                        </entry>
                        <entry>
                            <key>schema-version</key>
                            <value>
<dependencies>
    <dependentValues>schema-name</dependentValues>
    <propertyName>schema-access-strategy</propertyName>
</dependencies>
<name>schema-version</name>
                            </value>
                        </entry>
                        <entry>
                            <key>schema-branch</key>
                            <value>
<dependencies>
    <dependentValues>schema-name</dependentValues>
    <propertyName>schema-access-strategy</propertyName>
</dependencies>
<name>schema-branch</name>
                            </value>
                        </entry>
                        <entry>
                            <key>schema-text</key>
                            <value>
<dependencies>
    <dependentValues>schema-text-property</dependentValues>
    <propertyName>schema-access-strategy</propertyName>
</dependencies>
<name>schema-text</name>
                            </value>
                        </entry>
                        <entry>
                            <key>Date Format</key>
                            <value>
<name>Date Format</name>
                            </value>
                        </entry>
                        <entry>
                            <key>Time Format</key>
                            <value>
<name>Time Format</name>
                            </value>
                        </entry>
                        <entry>
                            <key>Timestamp Format</key>
                            <value>
<name>Timestamp Format</name>
                            </value>
                        </entry>
                        <entry>
                            <key>CSV Format</key>
                            <value>
<name>CSV Format</name>
                            </value>
                        </entry>
                        <entry>
                            <key>Value Separator</key>
                            <value>
<dependencies>
    <dependentValues>custom</dependentValues>
    <propertyName>CSV Format</propertyName>
</dependencies>
<name>Value Separator</name>
                            </value>
                        </entry>
                        <entry>
                            <key>Include Header Line</key>
                            <value>
<name>Include Header Line</name>
                            </value>
                        </entry>
                        <entry>
                            <key>Quote Character</key>
                            <value>
<dependencies>
    <dependentValues>custom</dependentValues>
    <propertyName>CSV Format</propertyName>
</dependencies>
<name>Quote Character</name>
                            </value>
                        </entry>
                        <entry>
                            <key>Escape Character</key>
                            <value>
<dependencies>
    <dependentValues>custom</dependentValues>
    <propertyName>CSV Format</propertyName>
</dependencies>
<name>Escape Character</name>
                            </value>
                        </entry>
                        <entry>
                            <key>Comment Marker</key>
                            <value>
<dependencies>
    <dependentValues>custom</dependentValues>
    <propertyName>CSV Format</propertyName>
</dependencies>
<name>Comment Marker</name>
                            </value>
                        </entry>
                        <entry>
                            <key>Null String</key>
                            <value>
<dependencies>
    <dependentValues>custom</dependentValues>
    <propertyName>CSV Format</propertyName>
</dependencies>
<name>Null String</name>
                            </value>
                        </entry>
                        <entry>
                            <key>Trim Fields</key>
                            <value>
<dependencies>
    <dependentValues>custom</dependentValues>
    <propertyName>CSV Format</propertyName>
</dependencies>
<name>Trim Fields</name>
                            </value>
                        </entry>
                        <entry>
                            <key>Quote Mode</key>
                            <value>
<dependencies>
    <dependentValues>custom</dependentValues>
    <propertyName>CSV Format</propertyName>
</dependencies>
<name>Quote Mode</name>
                            </value>
                        </entry>
                        <entry>
                            <key>Record Separator</key>
                            <value>
<dependencies>
    <dependentValues>custom</dependentValues>
    <propertyName>CSV Format</propertyName>
</dependencies>
<name>Record Separator</name>
                            </value>
                        </entry>
                        <entry>
                            <key>Include Trailing Delimiter</key>
                            <value>
<dependencies>
    <dependentValues>custom</dependentValues>
    <propertyName>CSV Format</propertyName>
</dependencies>
<name>Include Trailing Delimiter</name>
                            </value>
                        </entry>
                        <entry>
                            <key>csvutils-character-set</key>
                            <value>
<name>csvutils-character-set</name>
                            </value>
                        </entry>
                    </descriptors>
                    <name>CSVRecordSetWriter</name>
                    <persistsState>false</persistsState>
                    <properties>
                        <entry>
                            <key>Schema Write Strategy</key>
                            <value>no-schema</value>
                        </entry>
                        <entry>
                            <key>schema-cache</key>
                        </entry>
                        <entry>
                            <key>schema-protocol-version</key>
                            <value>1</value>
                        </entry>
                        <entry>
                            <key>schema-access-strategy</key>
                            <value>inherit-record-schema</value>
                        </entry>
                        <entry>
                            <key>schema-registry</key>
                        </entry>
                        <entry>
                            <key>schema-name</key>
                            <value>${schema.name}</value>
                        </entry>
                        <entry>
                            <key>schema-version</key>
                        </entry>
                        <entry>
                            <key>schema-branch</key>
                        </entry>
                        <entry>
                            <key>schema-text</key>
                            <value>${avro.schema}</value>
                        </entry>
                        <entry>
                            <key>Date Format</key>
                        </entry>
                        <entry>
                            <key>Time Format</key>
                        </entry>
                        <entry>
                            <key>Timestamp Format</key>
                        </entry>
                        <entry>
                            <key>CSV Format</key>
                            <value>custom</value>
                        </entry>
                        <entry>
                            <key>Value Separator</key>
                            <value>,</value>
                        </entry>
                        <entry>
                            <key>Include Header Line</key>
                            <value>true</value>
                        </entry>
                        <entry>
                            <key>Quote Character</key>
                            <value>"</value>
                        </entry>
                        <entry>
                            <key>Escape Character</key>
                            <value>\</value>
                        </entry>
                        <entry>
                            <key>Comment Marker</key>
                        </entry>
                        <entry>
                            <key>Null String</key>
                        </entry>
                        <entry>
                            <key>Trim Fields</key>
                            <value>true</value>
                        </entry>
                        <entry>
                            <key>Quote Mode</key>
                            <value>MINIMAL</value>
                        </entry>
                        <entry>
                            <key>Record Separator</key>
                            <value>\n</value>
                        </entry>
                        <entry>
                            <key>Include Trailing Delimiter</key>
                            <value>false</value>
                        </entry>
                        <entry>
                            <key>csvutils-character-set</key>
                            <value>UTF-8</value>
                        </entry>
                    </properties>
                    <state>ENABLED</state>
                    <type>org.apache.nifi.csv.CSVRecordSetWriter</type>
                </controllerServices>
                <controllerServices>
                    <id>79f04bdc-4d16-35ee-0000-000000000000</id>
                    <parentGroupId>e650f79f-faf4-3d6f-0000-000000000000</parentGroupId>
                    <versionedComponentId>79f04bdc-4d16-35ee-b315-41197268795d</versionedComponentId>
                    <bulletinLevel>WARN</bulletinLevel>
                    <bundle>
                        <artifact>nifi-record-serialization-services-nar</artifact>
                        <group>org.apache.nifi</group>
                        <version>1.19.1</version>
                    </bundle>
                    <descriptors>
                        <entry>
                            <key>schema-access-strategy</key>
                            <value>
<name>schema-access-strategy</name>
                            </value>
                        </entry>
                        <entry>
                            <key>schema-registry</key>
                            <value>
<dependencies>
    <dependentValues>confluent-encoded</dependentValues>
    <dependentValues>schema-name</dependentValues>
    <dependentValues>hwx-schema-ref-attributes</dependentValues>
    <dependentValues>hwx-content-encoded-schema</dependentValues>
    <propertyName>schema-access-strategy</propertyName>
</dependencies>
<identifiesControllerService>org.apache.nifi.schemaregistry.services.SchemaRegistry</identifiesControllerService>
<name>schema-registry</name>
                            </value>
                        </entry>
                        <entry>
                            <key>schema-name</key>
                            <value>
<dependencies>
    <dependentValues>schema-name</dependentValues>
    <propertyName>schema-access-strategy</propertyName>
</dependencies>
<name>schema-name</name>
                            </value>
                        </entry>
                        <entry>
                            <key>schema-version</key>
                            <value>
<dependencies>
    <dependentValues>schema-name</dependentValues>
    <propertyName>schema-access-strategy</propertyName>
</dependencies>
<name>schema-version</name>
                            </value>
                        </entry>
                        <entry>
                            <key>schema-branch</key>
                            <value>
<dependencies>
    <dependentValues>schema-name</dependentValues>
    <propertyName>schema-access-strategy</propertyName>
</dependencies>
<name>schema-branch</name>
                            </value>
                        </entry>
                        <entry>
                            <key>schema-text</key>
                            <value>
<dependencies>
    <dependentValues>schema-text-property</dependentValues>
    <propertyName>schema-access-strategy</propertyName>
</dependencies>
<name>schema-text</name>
                            </value>
                        </entry>
                        <entry>
                            <key>csv-reader-csv-parser</key>
                            <value>
<name>csv-reader-csv-parser</name>
                            </value>
                        </entry>
                        <entry>
                            <key>Date Format</key>
                            <value>
<name>Date Format</name>
                            </value>
                        </entry>
                        <entry>
                            <key>Time Format</key>
                            <value>
<name>Time Format</name>
                            </value>
                        </entry>
                        <entry>
                            <key>Timestamp Format</key>
                            <value>
<name>Timestamp Format</name>
                            </value>
                        </entry>
                        <entry>
                            <key>CSV Format</key>
                            <value>
<name>CSV Format</name>
                            </value>
                        </entry>
                        <entry>
                            <key>Value Separator</key>
                            <value>
<dependencies>
    <dependentValues>custom</dependentValues>
    <propertyName>CSV Format</propertyName>
</dependencies>
<name>Value Separator</name>
                            </value>
                        </entry>
                        <entry>
                            <key>Record Separator</key>
                            <value>
<dependencies>
    <dependentValues>custom</dependentValues>
    <propertyName>CSV Format</propertyName>
</dependencies>
<name>Record Separator</name>
                            </value>
                        </entry>
                        <entry>
                            <key>Skip Header Line</key>
                            <value>
<name>Skip Header Line</name>
                            </value>
                        </entry>
                        <entry>
                            <key>ignore-csv-header</key>
                            <value>
<name>ignore-csv-header</name>
                            </value>
                        </entry>
                        <entry>
                            <key>Quote Character</key>
                            <value>
<dependencies>
    <dependentValues>custom</dependentValues>